*Heading
 Frequency analysis of a coupling
** Job name: coupling Model name: coupling
** Generated by: Abaqus/CAE 2018
*Preprint, echo=NO, model=NO, history=NO, contact=NO
**
** PARTS
**
*Part, name=coupling
*Node
      1, 0.0199999996,           0., 0.00999999978
      2, 0.0199999996,           0., 0.0599999987
      3, 0.0199999996,           0.,           0.
      4, 0.0500000007,           0., 0.0199999996
      5, 0.0500000007,           0.,           0.
      6, -0.0399999991,           0., 0.0199999996
      7, -0.0399999991,           0.,           0.
      8, -0.0199999996, 0.0346410163, 0.0199999996
      9, -0.0199999996, 0.0346410163,           0.
     10, 0.0199999996, 0.0346410163, 0.0199999996
     11, 0.0199999996, 0.0346410163,           0.
     12, 0.0399999991,           0., 0.0199999996
     13, 0.0399999991,           0.,           0.
     14, 0.0199999996,           0., 0.0199999996
     15, 0.0199999996, -0.0346410163, 0.0199999996
     16, 0.0199999996, -0.0346410163,           0.
     17, -0.0199999996, -0.0346410163,           0.
     18, -0.0199999996, -0.0346410163, 0.0199999996
     19, 0.0193716642, 0.00497379759, 0.00999999978
     20,  0.017526133, 0.00963507313, 0.00999999978
** ... 6979 like lines cut
*Element, type=C3D4
    1, 2921, 2922, 2923, 2924
    2, 2921, 2925, 2923, 2926
    3, 2921, 2927, 2928, 2929
    4, 2930, 2928, 2931, 2921
    5, 1979, 2932, 2933, 1858
    6, 2921, 2930, 2925, 2931
    7, 2934, 2935, 2936, 2937
    8, 2934, 2936, 2935, 2938
    9, 2934, 2939, 2940, 2941
   10, 2942, 2943, 2944, 2945
   11, 2945, 2942, 2946, 2944
   12, 2947, 2948, 2949, 2944
   13, 2944, 2950, 2951, 2946
   14, 2944, 2952, 2947, 2943
   15, 2953, 2954, 2955, 2956
   16, 2953, 2957, 2958, 2959
   17, 2953, 2960, 2961, 2954
   18, 2953, 2959, 2960, 2962
   19, 2963, 2964, 2965, 2966
   20, 2964, 2967, 2965, 2968
** ... 33221 like lines cut
*Nset, nset=Set-1, generate
    1,  6999,     1
*Elset, elset=Set-1, generate
     1,  33241,      1
** Section: Section-coupling
*Solid Section, elset=Set-1, material=steel
,
*End Part
**  
**
** ASSEMBLY
**
*Assembly, name=Assembly
**  
*Instance, name=coupling-1, part=coupling
*End Instance
**  
*Nset, nset=Set-1, instance=coupling-1
   2,  43,  44,  45,  46,  47,  48,  49,  50,  51,  52,  53,  54,  55,  56,  57
  58,  59,  60,  61,  62,  63,  64,  65,  66, 469, 470, 471, 472, 473, 474, 475
 476, 477, 478, 479, 480, 481, 482, 483, 484, 485, 486, 487, 488, 489, 490, 491
 492, 493, 494, 495, 496, 497, 498, 499, 500, 501, 502, 503, 504, 505, 506, 507
 508, 509, 510, 511, 512, 513, 514, 515, 516, 517
*Elset, elset=Set-1, instance=coupling-1
  1189,  2024,  2496,  3677,  3882,  3920,  4103,  4118,  4132,  4142,  4175,  4606,  4616,  4631,  4642,  4644
  4658,  4663,  4669,  4674,  4686,  4698,  4699,  4702,  4714,  4735,  4738,  4749,  4755,  4759,  4771,  4775
  4780,  4782,  4799,  4812,  4842,  4862,  4863,  4865,  4871,  4874,  4882,  4891,  4892,  4894,  4896,  4904
  4915,  4916,  4927,  4930,  4931,  4949,  4952,  4966,  4971,  4984,  5004,  5005,  5009,  5030,  5040,  5043
  5046,  5047,  5055,  5056,  5489,  5543,  5660,  5720,  5839,  6074,  6124,  6303,  8471,  9500, 11526, 11533
 11537, 11540, 11558, 11579, 11591, 11599, 11600, 11604, 11615, 11649, 11653, 11655, 11657, 11660, 11693, 11699
 11727, 11730, 11752, 11777, 11808, 11818, 11825, 11833, 11855, 11929, 11937, 11976, 11993, 12103, 12179, 12289
 18951, 21943, 21944, 26657, 26679, 26875, 27383, 29573, 32362
*Nset, nset=Set-2, instance=coupling-1
    3,    5,    7,    9,   11,   13,   16,   17,   67,   68,   69,   70,   71,   72,   73,   74
   75,   76,   77,   78,   79,   80,   81,   82,   83,   84,   85,   86,   87,   88,   89,   90
  153,  154,  155,  156,  157,  158,  159,  160,  161,  162,  163,  164,  165,  166,  167,  168
  169,  170,  171,  172,  173,  174,  175,  176,  177,  178,  179,  180,  181,  182,  183,  184
  185,  186,  187,  188,  189,  190,  191,  192,  193,  194,  195,  196,  197,  198,  199,  200
  201,  202,  203,  204,  205,  206,  207,  208,  209,  210,  211,  212,  213,  214,  230,  231
  232,  233,  234,  235,  236,  237,  238,  239,  240,  241,  242,  243,  244,  260,  261,  262
  263,  264,  265,  266,  267,  268,  269,  270,  271,  272,  273,  274,  290,  291,  292,  293
  294,  295,  296,  297,  298,  299,  300,  301,  302,  303,  304,  320,  321,  322,  323,  324
  325,  326,  327,  328,  329,  330,  331,  332,  333,  334,  374,  375,  376,  377,  378,  379
  380,  381,  382,  383,  384,  385,  386,  387,  388,  389,  390,  391,  392,  393,  394,  395
  396,  397,  398,  399,  400,  401,  402,  403, 1627, 1628, 1629, 1630, 1631, 1632, 1633, 1634
 1635, 1636, 1637, 1638, 1639, 1640, 1641, 1642, 1643, 1644, 1645, 1646, 1647, 1648, 1649, 1650
 1651, 1652, 1653, 1654, 1655, 1656, 1657, 1658, 1659, 1660, 1661, 1662, 1663, 1664, 1665, 1666
 1667, 1668, 1669, 1670, 1671, 1672, 1673, 1674, 1675, 1676, 1677, 1678, 1679, 1680, 1681, 1682
 1683, 1684, 1685, 1686, 1687, 1688, 1689, 1690, 1691, 1692, 1693, 1694, 1695, 1696, 1697, 1698
 1699, 1700, 1701, 1702, 1703, 1704, 1705, 1706, 1707, 1708, 1709, 1710, 1711, 1712, 1713, 1714
 1715, 1716, 1717, 1718, 1719, 1720, 1721, 1722, 1723, 1724, 1725, 1726, 1727, 1728, 1729, 1730
 1731, 1732, 1733, 1734, 1735, 1736, 1737, 1738, 1739, 1740, 1741, 1742, 1743, 1744, 1745, 1746
 1747, 1748, 1749, 1750, 1751, 1752, 1753, 1754, 1755, 1756, 1757, 1758, 1759, 1760, 1761, 1762
** ... 28 like lines cut
*Elset, elset=Set-2, instance=coupling-1
    81,   125,   247,   313,   518,   612,   878,   927,   952,   958,   989,  1126,  1191,  1414,  1418,  2094
  2156,  2238,  2410,  2469,  2611,  2623,  2728,  2744,  3541,  3688,  3735,  3744,  3757,  3810,  3872,  3887
  3942,  3970,  3980,  3991,  3997,  4010,  4019,  4041,  4057,  4063,  4067,  4071,  4075,  4105,  4106,  4180
  4187,  4190,  4217,  4226,  4228,  4246,  4322,  4340,  4376,  4388,  4415,  4417,  4442,  4662,  4769,  5082
  5128,  5153,  5172,  5197,  5245,  5250,  5263,  5274,  5277,  5285,  5310,  5316,  5333,  5354,  5385,  5396
  5397,  5416,  5440,  5465,  5518,  5537,  5795,  5803,  5858,  6037,  6050,  6134,  6181,  6267,  6329,  6367
  6425,  6436,  6479,  6486,  6490,  6570,  6585,  6598,  6621,  6662,  6730,  6797,  6802,  6809,  6811,  6817
  6821,  6823,  6844,  6860,  6870,  6895,  6906,  6914,  6920,  6924,  6927,  6934,  6956,  7011,  7035,  7046
  7071,  7076,  7115,  7137,  7161,  7174,  7246,  7247,  7248,  7249,  7281,  7289,  7292,  7348,  7434,  7452
  7460,  7471,  7493,  7557,  7641,  7735,  7740,  7755,  7801,  7865,  7896,  7898,  7901,  7919,  7949,  7951
  7953,  7988,  7993,  7999,  8052,  8083,  8087,  8094,  8128,  8141,  8151,  8152,  8154,  8182,  8188,  8189
  8206,  8207,  8209,  8237,  8243,  8263,  8285,  8295,  8308,  8319,  8320,  8321,  8328,  8329,  8340,  8345
  8350,  8354,  8363,  8367,  8369,  8371,  8375,  8643,  8686,  8698,  8756,  8765,  8775,  8786,  8787,  8809
  8834,  8892,  8901,  8920,  8954,  8995,  8996,  8997,  9010,  9016,  9018,  9086,  9098,  9135,  9140,  9151
  9157,  9165,  9174,  9175,  9176,  9197,  9219,  9232,  9236,  9238,  9246,  9269,  9271,  9320,  9324,  9335
  9356,  9362,  9377,  9386,  9402,  9415,  9423,  9430,  9434,  9436,  9567,  9696,  9706,  9712,  9880,  9931
  9976,  9983,  9994, 10001, 10035, 10066, 10072, 10084, 10091, 10119, 10121, 10136, 10179, 10191, 10216, 10217
 10223, 10224, 10225, 10237, 10257, 10326, 10339, 10342, 10346, 10347, 10350, 10371, 10374, 10383, 10389, 10401
 10418, 10422, 10429, 10458, 10464, 10471, 10499, 10535, 10596, 10609, 10611, 10616, 10673, 10690, 10867, 10870
 10874, 10899, 10924, 10936, 10939, 10947, 11002, 11013, 11051, 11058, 11076, 11081, 11093, 11103, 11109, 11117
** ... 65 like lines cut
*End Assembly
** 
** MATERIALS
** 
*Material, name=steel
*Density
7800.,
*Elastic
 2.06e+11, 0.3
** ----------------------------------------------------------------
** 
** STEP: Step-Model
** 
*Step, name=Step-Model, nlgeom=NO, perturbation
Model analysis of a coupling
*Frequency, eigensolver=Lanczos, sim, acoustic coupling=on, normalization=mass
30, , , , , 
** 
** BOUNDARY CONDITIONS
** 
** Name: BC-1 Type: Displacement/Rotation
*Boundary
Set-1, 1, 1
Set-1, 2, 2
Set-1, 3, 3
Set-1, 4, 4
Set-1, 5, 5
** Name: BC-2 Type: Symmetry/Antisymmetry/Encastre
*Boundary
Set-2, ZSYMM
** 
** OUTPUT REQUESTS
** 
*Restart, write, frequency=0
** 
** FIELD OUTPUT: F-Output-1
** 
*Output, field, variable=PRESELECT
*End Step
